#!/bin/bash
./sim-outorder -decode:width 1 -issue:width 1 -issue:inorder true -commit:width 1 -cache:il1 il1:256:32:4:l -cache:dl1 dl1:256:32:4:l -cache:il2 none -cache:dl2 none programa_sin_multiplicacion 2>&1 | awk '/sim_CPI/ {print}; /sim_num_insn/ {print}; /sim_cycle/ {print}' 
